
     RDKit          2D

 67 78  0  0  0  0  0  0  0  0999 V2000
   -0.7500   -5.3801    0.0000 C   0  0  0  0  0  0  0  0  0  1  0  0
    0.7500   -5.3801    0.0000 C   0  0  0  0  0  0  0  0  0  2  0  0
    1.5000   -4.0811    0.0000 C   0  0  0  0  0  0  0  0  0  3  0  0
    0.7500   -2.7821    0.0000 C   0  0  0  0  0  0  0  0  0  4  0  0
   -0.7500   -2.7821    0.0000 C   0  0  0  0  0  0  0  0  0  5  0  0
   -1.5000   -4.0811    0.0000 C   0  0  0  0  0  0  0  0  0  6  0  0
    1.2135   -6.8067    0.0000 N   0  0  0  0  0  0  0  0  0  7  0  0
   -0.0000   -7.6884    0.0000 S   0  0  0  0  0  0  0  0  0  8  0  0
   -1.2135   -6.8067    0.0000 N   0  0  0  0  0  0  0  0  0  9  0  0
   -1.7537   -1.6673    0.0000 N   0  0  0  0  0  0  0  0  0 10  0  0
   -3.1240   -2.2774    0.0000 C   0  0  0  0  0  0  0  0  0 11  0  0
   -2.9672   -3.7692    0.0000 C   0  0  0  0  0  0  0  0  0 12  0  0
    1.7537   -1.6673    0.0000 N   0  0  0  0  0  0  0  0  0 13  0  0
    3.1240   -2.2774    0.0000 C   0  0  0  0  0  0  0  0  0 14  0  0
    2.9672   -3.7692    0.0000 C   0  0  0  0  0  0  0  0  0 15  0  0
   -4.5912   -1.9656    0.0000 C   0  0  0  0  0  0  0  0  0 16  0  0
   -5.3412   -3.2646    0.0000 C   0  0  0  0  0  0  0  0  0 17  0  0
   -4.3375   -4.3793    0.0000 S   0  0  0  0  0  0  0  0  0 18  0  0
   -6.8085   -2.9527    0.0000 C   0  0  0  0  0  0  0  0  0 19  0  0
   -6.9652   -1.4610    0.0000 C   0  0  0  0  0  0  0  0  0 20  0  0
   -5.5949   -0.8509    0.0000 S   0  0  0  0  0  0  0  0  0 21  0  0
    4.5912   -1.9656    0.0000 C   0  0  0  0  0  0  0  0  0 22  0  0
    5.3412   -3.2646    0.0000 C   0  0  0  0  0  0  0  0  0 23  0  0
    4.3375   -4.3793    0.0000 S   0  0  0  0  0  0  0  0  0 24  0  0
    6.8085   -2.9527    0.0000 C   0  0  0  0  0  0  0  0  0 25  0  0
    6.9652   -1.4610    0.0000 C   0  0  0  0  0  0  0  0  0 26  0  0
    5.5949   -0.8509    0.0000 S   0  0  0  0  0  0  0  0  0 27  0  0
   -1.4418   -0.2001    0.0000 C   0  0  0  0  0  0  0  0  0 28  0  0
    1.4418   -0.2001    0.0000 C   0  0  0  0  0  0  0  0  0 29  0  0
   -7.9232   -3.9564    0.0000 C   0  0  0  0  0  0  0  0  0 30  0  0
    7.9232   -3.9564    0.0000 C   0  0  0  0  0  0  0  0  0 31  0  0
   -8.2643   -0.7110    0.0000 C   0  0  0  0  0  0  0  0  0 32  0  0
   -8.2643    0.7890    0.0000 C   0  0  0  0  0  0  0  0  0 33  0  0
   -7.0508    1.6707    0.0000 C   0  0  0  0  0  0  0  0  0 34  0  0
   -7.5143    3.0973    0.0000 C   0  0  0  0  0  0  0  0  0 35  0  0
   -9.0143    3.0973    0.0000 C   0  0  0  0  0  0  0  0  0 36  0  0
   -9.4778    1.6707    0.0000 C   0  0  0  0  0  0  0  0  0 37  0  0
   -5.6242    1.2072    0.0000 O   0  0  0  0  0  0  0  0  0 38  0  0
   -9.7643    4.3963    0.0000 C   0  0  0  0  0  0  0  0  0 39  0  0
   -9.0143    5.6954    0.0000 C   0  0  0  0  0  0  0  0  0 40  0  0
   -7.5143    5.6954    0.0000 C   0  0  0  0  0  0  0  0  0 41  0  0
   -6.7643    4.3963    0.0000 C   0  0  0  0  0  0  0  0  0 42  0  0
   -9.7643    6.9944    0.0000 F   0  0  0  0  0  0  0  0  0 43  0  0
   -6.7643    6.9944    0.0000 F   0  0  0  0  0  0  0  0  0 44  0  0
  -10.9044    1.2072    0.0000 C   0  0  0  0  0  0  0  0  0 45  0  0
  -12.0191    2.2109    0.0000 C   0  0  0  0  0  0  0  0  0 46  0  0
  -13.1338    3.2146    0.0000 N   0  0  0  0  0  0  0  0  0 47  0  0
  -11.2163   -0.2600    0.0000 C   0  0  0  0  0  0  0  0  0 48  0  0
  -11.5281   -1.7273    0.0000 N   0  0  0  0  0  0  0  0  0 49  0  0
    8.2643   -0.7110    0.0000 C   0  0  0  0  0  0  0  0  0 50  0  0
    8.2643    0.7890    0.0000 C   0  0  0  0  0  0  0  0  0 51  0  0
    7.0508    1.6707    0.0000 C   0  0  0  0  0  0  0  0  0 52  0  0
    7.5143    3.0973    0.0000 C   0  0  0  0  0  0  0  0  0 53  0  0
    9.0143    3.0973    0.0000 C   0  0  0  0  0  0  0  0  0 54  0  0
    9.4778    1.6707    0.0000 C   0  0  0  0  0  0  0  0  0 55  0  0
    5.6242    1.2072    0.0000 O   0  0  0  0  0  0  0  0  0 56  0  0
    9.7643    4.3963    0.0000 C   0  0  0  0  0  0  0  0  0 57  0  0
    9.0143    5.6954    0.0000 C   0  0  0  0  0  0  0  0  0 58  0  0
    7.5143    5.6954    0.0000 C   0  0  0  0  0  0  0  0  0 59  0  0
    6.7643    4.3963    0.0000 C   0  0  0  0  0  0  0  0  0 60  0  0
    9.7643    6.9944    0.0000 F   0  0  0  0  0  0  0  0  0 61  0  0
    6.7643    6.9944    0.0000 F   0  0  0  0  0  0  0  0  0 62  0  0
   10.9044    1.2072    0.0000 C   0  0  0  0  0  0  0  0  0 63  0  0
   12.0191    2.2109    0.0000 C   0  0  0  0  0  0  0  0  0 64  0  0
   13.1338    3.2146    0.0000 N   0  0  0  0  0  0  0  0  0 65  0  0
   11.2163   -0.2600    0.0000 C   0  0  0  0  0  0  0  0  0 66  0  0
   11.5281   -1.7273    0.0000 N   0  0  0  0  0  0  0  0  0 67  0  0
  1  2  1  0
  2  3  1  0
  3  4  2  0
  4  5  1  0
  5  6  2  0
  6  1  1  0
  2  7  2  0
  7  8  1  0
  8  9  1  0
  9  1  2  0
  5 10  1  0
 10 11  1  0
 11 12  2  0
 12  6  1  0
  4 13  1  0
 13 14  1  0
 14 15  2  0
 15  3  1  0
 11 16  1  0
 16 17  2  0
 17 18  1  0
 18 12  1  0
 17 19  1  0
 19 20  2  0
 20 21  1  0
 21 16  1  0
 14 22  1  0
 22 23  2  0
 23 24  1  0
 24 15  1  0
 23 25  1  0
 25 26  2  0
 26 27  1  0
 27 22  1  0
 10 28  1  0
 13 29  1  0
 19 30  1  0
 25 31  1  0
 20 32  1  0
 32 33  2  0
 33 34  1  0
 34 35  1  0
 35 36  2  0
 36 37  1  0
 37 33  1  0
 34 38  2  0
 37 45  2  0
 45 46  1  0
 46 47  3  0
 45 48  1  0
 48 49  3  0
 36 39  1  0
 39 40  2  0
 40 41  1  0
 41 42  2  0
 42 35  1  0
 40 43  1  0
 41 44  1  0
 26 50  1  0
 50 51  2  0
 51 52  1  0
 52 53  1  0
 53 54  2  0
 54 55  1  0
 55 51  1  0
 52 56  2  0
 55 63  2  0
 63 64  1  0
 64 65  3  0
 63 66  1  0
 66 67  3  0
 54 57  1  0
 57 58  2  0
 58 59  1  0
 59 60  2  0
 60 53  1  0
 58 61  1  0
 59 62  1  0
M  END
